<edges>
    <edge id="T2C" from="top" to="center" numLanes="3" speed="13.89"/>
    <edge id="C2B" from="center" to="bottom" numLanes="3" speed="13.89"/>
    <edge id="B2C" from="bottom" to="center" numLanes="3" speed="13.89"/>
    <edge id="C2T" from="center" to="top" numLanes="3" speed="13.89"/>
    <edge id="L2C" from="left" to="center" numLanes="3" speed="13.89"/>
    <edge id="C2R" from="center" to="right" numLanes="3" speed="13.89"/>
    <edge id="R2C" from="right" to="center" numLanes="3" speed="13.89"/>
    <edge id="C2L" from="center" to="left" numLanes="3" speed="13.89"/>
</edges>