<routes>
<<<<<<< HEAD
=======
<<<<<<< Updated upstream
    <!-- Define a standard passenger car -->
>>>>>>> 005a1b33579286b2e98cd7b1c0d8896cb0db45cc
    <vType id="car" accel="2.6" decel="4.5" sigma="0.5" length="5.0" minGap="2.5" maxSpeed="13.89" guiShape="passenger"/>

    <!-- Routes including Left and Right turns -->
    <!-- Format: edges="Source To_Center Center_To_Destination" -->
    <route id="s_to_n" edges="B2C C2T"/> <!-- Straight -->
    <route id="s_to_w" edges="B2C C2L"/> <!-- Left Turn -->
    <route id="s_to_e" edges="B2C C2R"/> <!-- Right Turn -->

<<<<<<< HEAD
    <route id="n_to_s" edges="T2C C2B"/> <!-- Straight -->
    <route id="n_to_e" edges="T2C C2R"/> <!-- Left Turn -->
    <route id="n_to_w" edges="T2C C2L"/> <!-- Right Turn -->

    <!-- Flows: Member 1 can now distribute traffic across these routes -->
    <flow id="f_sn" type="car" route="s_to_n" begin="0" end="3600" vehsPerHour="400"/>
    <flow id="f_sw" type="car" route="s_to_w" begin="0" end="3600" vehsPerHour="100"/>
    <flow id="f_se" type="car" route="s_to_e" begin="0" end="3600" vehsPerHour="100"/>
=======
    <!-- Create flows (Total vehicles per hour) -->
    <!-- This simulates a 'Medium' density scenario -->
    <flow id="flow_L2R" type="car" route="L2R" begin="0" end="3600" vehsPerHour="400"/>
    <flow id="flow_R2L" type="car" route="R2L" begin="0" end="3600" vehsPerHour="400"/>
    <flow id="flow_T2B" type="car" route="T2B" begin="0" end="3600" vehsPerHour="300"/>
    <flow id="flow_B2T" type="car" route="B2T" begin="0" end="3600" vehsPerHour="300"/>
=======
    <!-- 1. Define the Vehicle Type -->
    <vType id="car" accel="2.6" decel="4.5" sigma="0.5" length="5.0" minGap="2.5" maxSpeed="13.89" guiShape="passenger"/>

    <!-- 2. Define Routes (Straight, Left, Right) -->
    <!-- From South (B2C) -->
    <route id="s_straight" edges="B2C C2T"/>
    <route id="s_left" edges="B2C C2L"/>
    <route id="s_right" edges="B2C C2R"/>

    <!-- From North (T2C) -->
    <route id="n_straight" edges="T2C C2B"/>
    <route id="n_left" edges="T2C C2R"/>
    <route id="n_right" edges="T2C C2L"/>

    <!-- From West (L2C) -->
    <route id="w_straight" edges="L2C C2R"/>
    <route id="w_left" edges="L2C C2B"/>
    <route id="w_right" edges="L2C C2T"/>

    <!-- From East (R2C) -->
    <route id="e_straight" edges="R2C C2L"/>
    <route id="e_left" edges="R2C C2T"/>
    <route id="e_right" edges="R2C C2B"/>

    <!-- 3. Define Traffic Flows (Scenario: Off-Peak) -->
    <!-- Member 1 can increase vehsPerHour for 'Peak' scenario later -->
    <flow id="flow_s" type="car" route="s_straight" begin="0" end="3600" vehsPerHour="300"/>
    <flow id="flow_n" type="car" route="n_straight" begin="0" end="3600" vehsPerHour="300"/>
    <flow id="flow_w" type="car" route="w_straight" begin="0" end="3600" vehsPerHour="200"/>
    <flow id="flow_e" type="car" route="e_straight" begin="0" end="3600" vehsPerHour="200"/>
>>>>>>> Stashed changes
>>>>>>> 005a1b33579286b2e98cd7b1c0d8896cb0db45cc
</routes>