<configuration>
    <input>
        <net-file value="intersection.net.xml"/>
        <!-- Change this value to switch between peak and off-peak -->
        <route-files value="peak.rou.xml"/> 
    </input>
</configuration>