<configuration>
    <input>
        <net-file value="intersection.net.xml"/>
        <!-- Change this value to switch between peak and offpeak -->
        <route-files value="offpeak.rou.xml"/> 
    </input>
</configuration>